27
 generated by VMD
 C         0.070000       -0.269000       -0.054000
 C         1.221000        0.589000       -0.553000
 C        -0.643000        0.001000       -1.280000
 C         0.497000        0.851000       -1.774000
 H        -0.230000       -0.058000        0.876000
 H         0.230000       -1.253000       -0.129000
 S         0.171632        2.322757       -1.970133
 H         0.967000        0.508000       -2.588000
 C         1.483474        1.827878        0.250921
 H         2.084000        0.104000       -0.695000
 H        -0.955000       -0.610000       -2.007000
 C        -1.404999        0.582000       -0.994000
 H         1.533583        1.567441        1.330003
 H         2.452552        2.291222       -0.035033
 C         0.467985        2.776601        0.081491
 C        -0.780254        2.622279       -2.034926
 N        -2.900772        3.289526       -2.179265
 O        -1.203265        1.952851       -0.793800
 C        -0.949254        2.310011       -0.072258
 H         0.674703        3.754995        0.084778
 H        -1.177794        1.338359       -0.011748
 C        -1.674683        2.987744       -0.193293
 O        -1.647718        3.940244       -1.351264
 C        -2.781745        3.041343       -1.746085
 H        -1.994016        3.286081        0.706291
 H        -2.681165        2.394497       -2.502287
 H        -3.725928        3.370567       -1.723738
